24
Properties=species:S:1:pos:R:3 -358809.26928227756=T pbc="F F F"
N        0.40141877      -0.48436038      -0.10794358
N       -0.40315069       0.49729745      -0.09798928
C       -1.74959800       0.19419394      -0.05250283
C       -2.63447119       1.23402146      -0.35524667
C       -3.99640104       1.02090499      -0.29514112
C       -4.49182643      -0.21877480       0.08167921
C       -3.61974989      -1.25147483       0.39729274
C       -2.25713653      -1.05413268       0.33054734
C        1.74873842      -0.18646262      -0.05800190
C        2.62722486      -1.23227079      -0.35918018
C        3.99041458      -1.02986368      -0.29283566
C        4.49324115       0.20642105       0.08510705
C        3.62757918       1.24606095       0.39577919
C        2.26368410       1.05870752       0.32541145
H       -2.22918579       2.19039186      -0.64822636
H       -4.67852236       1.82290832      -0.53674805
H       -5.55861829      -0.37999898       0.13314815
H       -4.01135198      -2.21333485       0.69593646
H       -1.55914840      -1.84030589       0.57658936
H        2.21568600      -2.18566413      -0.65313273
H        4.66761946      -1.83719771      -0.53044413
H        5.56098843       0.35896906       0.14263799
H        4.02540864       2.20540911       0.69417869
H        1.57094337       1.85001703       0.56987610
